*Heading
** Job name: Job-1 Model name: Model-1
** Generated by: Abaqus/CAE Student Edition 2021
*Preprint, echo=NO, model=NO, history=NO, contact=NO
**
** PARTS
**
*Part, name=Part-1
*End Part
**  
**
** ASSEMBLY
**
*Assembly, name=Assembly
**  
*Instance, name=Part-1-1, part=Part-1
*Node
      1,          25.,          25.,          50.
      2,          25.,          15.,          50.
      3,          25.,           5.,          50.
      4,          25.,          -5.,          50.
      5,          25.,         -15.,          50.
      6,          25.,         -25.,          50.
      7,          25.,          25.,          40.
      8,          25.,          15.,          40.
      9,          25.,           5.,          40.
     10,          25.,          -5.,          40.
     11,          25.,         -15.,          40.
     12,          25.,         -25.,          40.
     13,          25.,          25.,          30.
     14,          25.,          15.,          30.
     15,          25.,           5.,          30.
     16,          25.,          -5.,          30.
     17,          25.,         -15.,          30.
     18,          25.,         -25.,          30.
     19,          25.,          25.,          20.
     20,          25.,          15.,          20.
** ... 196 like lines cut
*Element, type=C3D8R
  1,  37,  38,  44,  43,   1,   2,   8,   7
  2,  38,  39,  45,  44,   2,   3,   9,   8
  3,  39,  40,  46,  45,   3,   4,  10,   9
  4,  40,  41,  47,  46,   4,   5,  11,  10
  5,  41,  42,  48,  47,   5,   6,  12,  11
  6,  43,  44,  50,  49,   7,   8,  14,  13
  7,  44,  45,  51,  50,   8,   9,  15,  14
  8,  45,  46,  52,  51,   9,  10,  16,  15
  9,  46,  47,  53,  52,  10,  11,  17,  16
 10,  47,  48,  54,  53,  11,  12,  18,  17
 11,  49,  50,  56,  55,  13,  14,  20,  19
 12,  50,  51,  57,  56,  14,  15,  21,  20
 13,  51,  52,  58,  57,  15,  16,  22,  21
 14,  52,  53,  59,  58,  16,  17,  23,  22
 15,  53,  54,  60,  59,  17,  18,  24,  23
 16,  55,  56,  62,  61,  19,  20,  26,  25
 17,  56,  57,  63,  62,  20,  21,  27,  26
 18,  57,  58,  64,  63,  21,  22,  28,  27
 19,  58,  59,  65,  64,  22,  23,  29,  28
 20,  59,  60,  66,  65,  23,  24,  30,  29
** ... 105 like lines cut
*Nset, nset=Set-1, generate
   1,  216,    1
*Elset, elset=Set-1, generate
   1,  125,    1
** Section: Section-1
*Solid Section, elset=Set-1, material=Material
,
*End Instance
**  
*Nset, nset=Nxfixed, instance=Part-1-1, generate
 1,  4,  1
*Nset, nset=Nyfixed, instance=Part-1-1, generate
 1,  7,  2
*Nset, nset=Nzdisped, instance=Part-1-1
 1, 2, 5, 6
*Nset, nset=Nzfixed, instance=Part-1-1
 3, 4, 7, 8
*End Assembly
** 
** MATERIALS
** 
*Material, name=Material
*Elastic
 113.8, 0.342
** ----------------------------------------------------------------
** 
** STEP: Loads
** 
*Step, name=Loads, nlgeom=NO
*Static, direct
0.01, 1., 
** 
** BOUNDARY CONDITIONS
** 
** Name: BC-1 Type: Displacement/Rotation
*Boundary
Nxfixed, 1, 1
** Name: BC-2 Type: Displacement/Rotation
*Boundary
Nyfixed, 2, 2
** Name: BC-3 Type: Displacement/Rotation
*Boundary
Nzfixed, 3, 3
** Name: BC-4 Type: Displacement/Rotation
*Boundary
Nzdisped, 3, 3, 0.3
** 
** OUTPUT REQUESTS
** 
*Restart, write, frequency=0
** 
** FIELD OUTPUT: F-Output-1
** 
*Output, field
*Node Output
U, 
*Element Output, directions=YES
PE, PEMAG, S, PEEQ
*Output, history, frequency=0
*End Step
